Version 4
SHEET 1 2532 692
WIRE -1216 -608 -1280 -608
WIRE -960 -608 -1008 -608
WIRE -704 -608 -768 -608
WIRE -1280 -544 -1280 -608
WIRE -1008 -544 -1008 -608
WIRE -768 -544 -768 -608
WIRE -1280 -432 -1280 -464
WIRE -1008 -432 -1008 -464
WIRE -768 -416 -768 -464
WIRE 2080 -304 1776 -304
WIRE 2432 -304 2144 -304
WIRE -1280 -272 -1280 -320
WIRE 1040 -272 736 -272
WIRE 1392 -272 1104 -272
WIRE -16 -240 -320 -240
WIRE 336 -240 48 -240
WIRE 2256 -176 2160 -176
WIRE 2432 -176 2432 -304
WIRE 2432 -176 2336 -176
WIRE -1280 -144 -1280 -192
WIRE 1216 -144 1120 -144
WIRE 1392 -144 1392 -272
WIRE 1392 -144 1296 -144
WIRE 160 -112 64 -112
WIRE 336 -112 336 -240
WIRE 336 -112 240 -112
WIRE -1280 -16 -1280 -64
WIRE 1600 0 1504 0
WIRE 1776 0 1776 -304
WIRE 1776 0 1680 0
WIRE 1984 0 1776 0
WIRE 2160 0 2160 -176
WIRE 2160 0 2048 0
WIRE 2256 0 2160 0
WIRE 2432 16 2432 -176
WIRE 2432 16 2320 16
WIRE 2528 16 2432 16
WIRE 560 32 464 32
WIRE 736 32 736 -272
WIRE 736 32 640 32
WIRE 944 32 736 32
WIRE 1120 32 1120 -144
WIRE 1120 32 1008 32
WIRE 1184 32 1120 32
WIRE 2256 32 2144 32
WIRE 1392 48 1392 -144
WIRE 1392 48 1248 48
WIRE 1504 48 1504 0
WIRE 1504 48 1392 48
WIRE -496 64 -592 64
WIRE -320 64 -320 -240
WIRE -320 64 -416 64
WIRE -144 64 -320 64
WIRE 64 64 64 -112
WIRE 64 64 -80 64
WIRE 160 64 64 64
WIRE 1184 64 1104 64
WIRE 336 80 336 -112
WIRE 336 80 224 80
WIRE 464 80 464 32
WIRE 464 80 336 80
WIRE 160 96 48 96
WIRE 1504 96 1504 48
WIRE 1600 96 1504 96
WIRE 2016 96 1680 96
WIRE 2144 96 2144 32
WIRE 2144 96 2016 96
WIRE -1280 112 -1280 64
WIRE -592 112 -592 64
WIRE -592 112 -752 112
WIRE 464 128 464 80
WIRE 560 128 464 128
WIRE 976 128 640 128
WIRE 1104 128 1104 64
WIRE 1104 128 976 128
WIRE 2016 144 2016 96
WIRE 2304 144 2016 144
WIRE 2432 144 2432 16
WIRE 2432 144 2384 144
WIRE -592 160 -592 112
WIRE -496 160 -592 160
WIRE -80 160 -416 160
WIRE 48 160 48 96
WIRE 48 160 -80 160
WIRE 1776 160 1776 0
WIRE 976 176 976 128
WIRE 1264 176 976 176
WIRE 1392 176 1392 48
WIRE 1392 176 1344 176
WIRE 2016 176 2016 144
WIRE -320 192 -320 64
WIRE 736 192 736 32
WIRE -80 208 -80 160
WIRE 224 208 -80 208
WIRE 336 208 336 80
WIRE 336 208 304 208
WIRE 976 208 976 176
WIRE -1280 240 -1280 192
WIRE -80 240 -80 208
WIRE 2160 256 2160 0
WIRE 64 272 64 64
WIRE 1120 288 1120 32
WIRE 1776 336 1776 240
WIRE 2016 336 2016 256
WIRE 736 368 736 272
WIRE 976 368 976 288
WIRE -1280 400 -1280 320
WIRE -320 400 -320 272
WIRE -80 400 -80 320
WIRE 2160 416 2160 336
WIRE 1120 448 1120 368
WIRE 64 480 64 352
FLAG -320 400 0
FLAG -80 400 0
FLAG 64 480 0
FLAG 736 368 0
FLAG 976 368 0
FLAG 1120 448 0
FLAG 1776 336 0
FLAG 2016 336 0
FLAG 2160 416 0
FLAG -1280 -432 0
FLAG -1008 -432 0
FLAG -1216 -608 V++
FLAG -960 -608 V--
FLAG -768 -416 0
FLAG -1280 -320 Vin
FLAG -704 -608 Vac
FLAG -1280 400 0
FLAG -752 112 Vac
FLAG 1216 -688 V--
FLAG 1216 -752 V++
FLAG 992 -672 V--
FLAG 992 -736 V++
FLAG 784 -672 V--
FLAG 784 -736 V++
DATAFLAG 2480 16 ""
SYMBOL res -400 48 R90
WINDOW 0 0 56 VBottom 2
WINDOW 3 32 56 VTop 2
SYMATTR InstName R1
SYMATTR Value 11.74k
SYMBOL cap -80 48 R90
WINDOW 0 0 32 VBottom 2
WINDOW 3 32 32 VTop 2
SYMATTR InstName C1
SYMATTR Value 12n
SYMBOL res -336 176 R0
SYMATTR InstName R4
SYMATTR Value 45.47k
SYMBOL res -96 224 R0
SYMATTR InstName R6
SYMATTR Value 9.116k
SYMBOL res 48 256 R0
SYMATTR InstName R5
SYMATTR Value 2.443k
SYMBOL cap 48 -256 R90
WINDOW 0 0 32 VBottom 2
WINDOW 3 32 32 VTop 2
SYMATTR InstName C2
SYMATTR Value 12n
SYMBOL res -400 144 R90
WINDOW 0 0 56 VBottom 2
WINDOW 3 32 56 VTop 2
SYMATTR InstName R3
SYMATTR Value 92.4k
SYMBOL res 256 -128 R90
WINDOW 0 0 56 VBottom 2
WINDOW 3 32 56 VTop 2
SYMATTR InstName R2
SYMATTR Value 2.008k
SYMBOL res 320 192 R90
WINDOW 0 0 56 VBottom 2
WINDOW 3 32 56 VTop 2
SYMATTR InstName R7
SYMATTR Value 8.333k
SYMBOL res 656 16 R90
WINDOW 0 0 56 VBottom 2
WINDOW 3 32 56 VTop 2
SYMATTR InstName R8
SYMATTR Value 24.84k
SYMBOL cap 1008 16 R90
WINDOW 0 0 32 VBottom 2
WINDOW 3 32 32 VTop 2
SYMATTR InstName C3
SYMATTR Value 5n
SYMBOL res 720 176 R0
SYMATTR InstName R9
SYMATTR Value 32.05k
SYMBOL res 960 192 R0
SYMATTR InstName R10
SYMATTR Value 22.32k
SYMBOL res 1104 272 R0
SYMATTR InstName R11
SYMATTR Value 15.7k
SYMBOL cap 1104 -288 R90
WINDOW 0 0 32 VBottom 2
WINDOW 3 32 32 VTop 2
SYMATTR InstName C4
SYMATTR Value 5n
SYMBOL res 656 112 R90
WINDOW 0 0 56 VBottom 2
WINDOW 3 32 56 VTop 2
SYMATTR InstName R12
SYMATTR Value 89.29k
SYMBOL res 1312 -160 R90
WINDOW 0 0 56 VBottom 2
WINDOW 3 32 56 VTop 2
SYMATTR InstName R13
SYMATTR Value 9.882k
SYMBOL res 1360 160 R90
WINDOW 0 0 56 VBottom 2
WINDOW 3 32 56 VTop 2
SYMATTR InstName R14
SYMATTR Value 17.86k
SYMBOL res 1696 -16 R90
WINDOW 0 0 56 VBottom 2
WINDOW 3 32 56 VTop 2
SYMATTR InstName R15
SYMATTR Value 599.7
SYMBOL cap 2048 -16 R90
WINDOW 0 0 32 VBottom 2
WINDOW 3 32 32 VTop 2
SYMATTR InstName C5
SYMATTR Value 560n
SYMBOL res 1760 144 R0
SYMATTR InstName R16
SYMATTR Value 11.39k
SYMBOL res 2000 160 R0
SYMATTR InstName R17
SYMATTR Value 178.9
SYMBOL res 2144 240 R0
SYMATTR InstName R18
SYMATTR Value 2.441
SYMBOL cap 2144 -320 R90
WINDOW 0 0 32 VBottom 2
WINDOW 3 32 32 VTop 2
SYMATTR InstName C6
SYMATTR Value 560n
SYMBOL res 1696 80 R90
WINDOW 0 0 56 VBottom 2
WINDOW 3 32 56 VTop 2
SYMATTR InstName R19
SYMATTR Value 89.08k
SYMBOL res 2352 -192 R90
WINDOW 0 0 56 VBottom 2
WINDOW 3 32 56 VTop 2
SYMATTR InstName R20
SYMATTR Value 2.44
SYMBOL res 2400 128 R90
WINDOW 0 0 56 VBottom 2
WINDOW 3 32 56 VTop 2
SYMATTR InstName R21
SYMATTR Value 178.6
SYMBOL voltage -1280 -560 R0
WINDOW 123 0 0 Left 0
WINDOW 39 0 0 Left 0
SYMATTR InstName V1
SYMATTR Value 15
SYMBOL voltage -1008 -448 R180
WINDOW 0 24 96 Left 2
WINDOW 3 24 16 Left 2
SYMATTR InstName V2
SYMATTR Value 15
SYMBOL voltage -768 -560 R0
WINDOW 123 24 44 Left 2
WINDOW 39 0 0 Left 0
SYMATTR Value2 AC 1.
SYMATTR InstName V3
SYMATTR Value SINE (0 1 10k)
SYMBOL voltage -1280 -288 R0
WINDOW 123 24 44 Left 2
WINDOW 39 0 0 Left 0
SYMATTR Value2 AC 1.
SYMATTR InstName V4
SYMATTR Value SINE(0 0.3 3k)
SYMBOL voltage -1280 224 R0
WINDOW 123 24 44 Left 2
WINDOW 39 0 0 Left 0
SYMATTR Value2 AC 1.
SYMATTR InstName V5
SYMATTR Value SINE (0 0.2 200)
SYMBOL voltage -1280 -160 R0
WINDOW 123 24 44 Left 2
WINDOW 39 0 0 Left 0
SYMATTR Value2 AC 1.
SYMATTR InstName V6
SYMATTR Value SINE(0 0.5 1k)
SYMBOL voltage -1280 -32 R0
WINDOW 123 24 44 Left 2
WINDOW 39 0 0 Left 0
SYMATTR Value2 AC 1.
SYMATTR InstName V7
SYMATTR Value SINE(0 0.7 800)
SYMBOL voltage -1280 96 R0
WINDOW 123 24 44 Left 2
WINDOW 39 0 0 Left 0
SYMATTR Value2 AC 1.
SYMATTR InstName V8
SYMATTR Value SINE(0 1 500)
SYMBOL Opamps\\opamp 192 16 R0
SYMATTR InstName U4
SYMATTR SpiceLine2 GBW=1000Meg
SYMBOL Opamps\\opamp 1216 -16 R0
SYMATTR InstName U5
SYMATTR SpiceLine2 GBW=1000Meg
SYMBOL Opamps\\opamp 2288 -48 R0
SYMATTR InstName U6
SYMATTR SpiceLine2 GBW=1000Meg
SYMBOL Opamps\\LT1364 1216 -784 R0
SYMATTR InstName U1
SYMBOL Opamps\\LT1364 992 -768 R0
SYMATTR InstName U2
SYMBOL Opamps\\LT1364 784 -768 R0
SYMATTR InstName U3
TEXT 1944 -592 Left 2 !.ac dec 10 1 10MEG
TEXT 1944 -552 Left 2 !;.tran 10m
TEXT 1952 -528 Left 2 !.lib opamp.sub
