Version 4
SHEET 1 880 680
WIRE 64 -32 0 -32
WIRE 0 16 0 -32
WIRE 624 48 320 48
WIRE 0 144 0 96
WIRE 320 176 320 48
WIRE 448 176 320 176
WIRE 64 192 0 192
WIRE 624 208 624 48
WIRE 624 208 544 208
WIRE 672 208 624 208
WIRE 0 240 0 192
WIRE 448 240 320 240
WIRE 320 256 320 240
WIRE 0 384 0 320
WIRE 320 384 320 336
FLAG 320 384 0
FLAG 0 144 0
FLAG 0 384 0
FLAG 64 -32 Vdd
FLAG 64 192 Vss
FLAG 496 144 Vdd
FLAG 496 272 Vss
SYMBOL voltage 320 240 R0
WINDOW 3 24 152 Left 2
WINDOW 123 24 44 Left 2
WINDOW 39 0 0 Left 0
SYMATTR Value ""
SYMATTR Value2 AC 1
SYMATTR InstName V1
SYMBOL voltage 0 0 R0
SYMATTR InstName V2
SYMATTR Value 1.5
SYMBOL voltage 0 224 R0
SYMATTR InstName V3
SYMATTR Value -1.5
SYMBOL Propios\\OPAM_350 496 208 R0
SYMATTR InstName X1
TEXT 160 -128 Left 2 !.ac dec 1k 1KHz 1000MEG
